         540
  Built with Packmol                                             
  C           16.032412        9.806301       14.737851
  C           15.602906        9.870529       13.280892
  C           16.769504        9.573335       12.338980
  C           16.331795        9.639310       10.874992
  C           17.497428        9.342279        9.929986
  C           17.055531        9.409253        8.467270
  C           18.217593        9.112942        7.517790
  C           17.769376        9.181458        6.056986
  C           18.927039        8.886047        5.101996
  C           18.472642        8.956042        3.642906
  C           19.626477        8.661456        2.684933
  C           19.259420        8.710942        1.224410
  O           20.034193        8.506155        0.302492
  O           17.974577        9.005825        0.967946
  H           17.919779        8.994164       -0.010640
  C            8.151713        6.227896       15.379614
  C            7.992877        7.063103       14.119245
  C            7.480711        6.221929       12.950234
  C            7.322847        7.067029       11.685289
  C            6.810372        6.227679       10.513613
  C            6.653925        7.076414        9.250890
  C            6.141596        6.241782        8.075896
  C            5.987320        7.096003        6.816513
  C            5.475183        6.267184        5.637433
  C            5.322977        7.126815        4.381174
  C            4.811354        6.302526        3.200236
  C            4.634119        7.079054        1.921213
  O            4.236907        6.606749        0.867033
  O            4.948985        8.382445        1.995911
  H            4.776051        8.719954        1.092058
  C           20.006090        6.864624       14.197113
  C           19.876160        5.677803       13.255888
  C           20.005851        6.104960       11.793975
  C           19.874387        4.907343       10.851833
  C           20.003781        5.331936        9.387953
  C           19.871771        4.131581        8.449328
  C           20.000437        4.550667        6.983888
  C           19.867568        3.346177        6.050566
  C           19.995326        3.758479        4.583207
  C           19.861633        2.549857        3.654941
  C           19.988687        2.957290        2.187398
  C           19.867841        1.820081        1.206349
  O           19.940456        1.934606       -0.007634
  O           19.666074        0.611115        1.755205
  H           19.613375        0.007232        0.984935
  C           19.999770        0.042383       12.611717
  C           19.795079        0.077313       11.105659
  C           18.311660        0.027838       10.740290
  C           18.111718        0.063243        9.224384
  C           16.627918        0.013832        8.855794
  C           16.432420        0.049449        7.339282
  C           14.950096        0.000261        6.965119
  C           14.761308        0.036165        5.447683
  C           13.280808       -0.012758        5.066656
  C           13.098511        0.023451        3.548177
  C           11.620352       -0.025256        3.162823
  C           11.355757        0.006599        1.679825
  O           10.247209       -0.023526        1.167616
  O           12.450941        0.073097        0.905423
  H           12.094851        0.084895       -0.007719
  C           10.656126       18.051513       14.972144
  C           11.423657       17.743522       13.696461
  C           10.789016       18.422201       12.482748
  C           11.565051       18.108997       11.202562
  C           10.932075       18.786978        9.986154
  C           11.711019       18.471284        8.708311
  C           11.082166       19.146953        7.488592
  C           11.865487       18.827470        6.214277
  C           11.241707       19.500283        4.990481
  C           12.029365       19.177111        3.719467
  C           11.409464       19.847498        2.493853
  C           12.129157       19.577354        1.197948
  O           11.795386       20.018522        0.108861
  O           13.211088       18.788210        1.299086
  H           13.543635       18.723368        0.379317
  C           12.194597        0.821409       14.181977
  C           12.401840        0.714501       12.679662
  C           11.588194        1.765916       11.925354
  C           11.800460        1.653734       10.414871
  C           10.987281        2.704870        9.657364
  C           11.202370        2.589254        8.147508
  C           10.391307        3.638318        7.385050
  C           10.610634        3.517493        5.876131
  C            9.802172        4.563996        5.107574
  C           10.025649        4.438119        3.599418
  C            9.219544        5.482113        2.827343
  C            9.385636        5.424214        1.330890
  O            8.830093        6.168516        0.537462
  O           10.215544        4.467228        0.884819
  H           10.201411        4.576721       -0.089132
  C           19.843368       14.534443       15.648261
  C           19.836034       13.782197       14.327123
  C           19.878759       14.739891       13.136548
  C           19.871188       13.977886       11.810466
  C           19.913882       14.933927       10.617098
  C           19.906183       14.168019        9.293231
  C           19.948785       15.119499        8.096330
  C           19.940858       14.347694        6.775802
  C           19.983336       15.293554        5.574552
  C           19.975210       14.515952        4.257134
  C           20.017573       15.457323        3.053866
  C           20.012315       14.766726        1.714704
  O           20.042056       15.337092        0.634916
  O           19.971300       13.425290        1.763864
  H           19.974049       13.153678        0.822064
  C           15.134267        4.317281       15.533988
  C           15.516374        3.856604       14.136453
  C           14.925249        4.770999       13.063641
  C           15.312757        4.302954       11.660084
  C           14.722466        5.216316       10.584310
  C           15.112299        4.744854        9.182507
  C           14.524491        5.654915        8.102705
  C           14.917809        5.178272        6.703544
  C           14.333052        6.084257        5.618783
  C           14.729810        5.602555        4.222048
  C           14.147545        6.505119        3.134772
  C           14.493741        6.096618        1.726374
  O           14.128172        6.683507        0.719367
  O           15.262772        5.000591        1.622135
  H           15.383801        4.887307        0.656067
  C           15.110075       14.694340       14.858701
  C           15.290262       15.308244       13.479576
  C           15.106210       14.268185       12.374644
  C           15.288542       14.891151       10.989772
  C           15.104898       13.852448        9.881920
  C           15.288007       14.479418        8.498925
  C           15.105380       13.444841        7.387170
  C           15.289696       14.077853        6.007002
  C           15.108334       13.048358        4.890442
  C           15.293816       13.687300        3.512883
  C           15.113439       12.661997        2.393935
  C           15.280846       13.214225        1.002057
  O           15.177098       12.561443       -0.025199
  O           15.564178       14.525392        0.937914
  H           15.636580       14.705229       -0.022911
  C            4.653567       10.123160       14.400940
  C            5.250362       10.777075       13.164994
  C            4.283804       10.726305       11.981921
  C            4.889219       11.385385       10.741643
  C            3.923987       11.336010        9.555957
  C            4.533145       11.996028        8.317974
  C            3.571851       11.949402        7.129092
  C            4.186678       12.610810        5.894560
  C            3.230243       12.567563        4.701740
  C            3.850620       13.230403        3.470441
  C            2.898170       13.189459        2.275875
  C            3.436961       13.824161        1.020022
  O            2.834636       13.894803       -0.040335
  O            4.674304       14.335746        1.124014
  H            4.856334       14.698336        0.231735
  C            4.696202       16.866619       14.539242
  C            5.751508       16.350163       13.574394
  C            5.439229       16.753808       12.133552
  C            6.503849       16.231729       11.167518
  C            6.193843       16.634238        9.724658
  C            7.260690       16.110294        8.762047
  C            6.955476       16.510071        7.317497
  C            8.025673       15.983280        6.360048
  C            7.726360       16.379681        4.913419
  C            8.799924       15.850095        3.960886
  C            8.504801       16.243931        2.513950
  C            9.518966       15.758645        1.510818
  O            9.466070       15.966265        0.308222
  O           10.537418       15.050244        2.025089
  H           11.085310       14.822688        1.244832
  C           10.255921       12.312087       14.841768
  C           10.921486       11.983338       13.515013
  C            9.925369       12.046602       12.357333
  C           10.600200       11.715097       11.025452
  C            9.605549       11.777639        9.864968
  C           10.284307       11.445564        8.535189
  C            9.293924       11.506671        7.371098
  C            9.978605       11.173702        6.044492
  C            8.993480       11.233030        4.875961
  C            9.683981       10.899184        3.552301
  C            8.703131       10.957273        2.381666
  C            9.307610       10.639853        1.038477
  O            8.695158       10.631666       -0.018395
  O           10.619043       10.351088        1.056062
  H           10.835284       10.174899        0.116400
  C           -0.003184       12.269578       13.968153
  C           -0.001039       12.158248       12.451929
  C           -0.004401       13.535445       11.788762
  C           -0.002225       13.417426       10.263879
  C           -0.005596       14.794330        9.597480
  C           -0.003392       14.671833        8.072919
  C           -0.006745       16.046137        7.401369
  C           -0.004532       15.916877        5.877287
  C           -0.007873       17.287974        5.199394
  C           -0.005628       17.152140        3.675628
  C           -0.008957       18.520050        2.993983
  C           -0.007008       18.472164        1.487992
  O           -0.009106       19.451816        0.758321
  O           -0.002636       17.239230        0.955634
  H           -0.001968       17.398931       -0.011456
  C            0.012774        6.848738       15.101145
  C            0.000991        6.319252       13.676071
  C            0.010115        7.456967       12.655289
  C           -0.001795        6.918643       11.223762
  C            0.007290        8.055176       10.199958
  C           -0.004648        7.512642        8.769989
  C            0.004379        8.645242        7.741964
  C           -0.007634        8.096347        6.314340
  C            0.001311        9.224100        5.281116
  C           -0.010754        8.668979        3.855628
  C           -0.001870        9.792625        2.819691
  C           -0.012938        9.326917        1.386756
  O           -0.008276       10.064330        0.412927
  O           -0.029010        7.994544        1.219199
  H           -0.034220        7.878378        0.245933
  C            7.401133        0.055288       14.690259
  C            7.435297        0.840118       13.388643
  C            6.872968        0.022356       12.226092
  C            6.909778        0.816598       10.919560
  C            6.347556        0.000549        9.754255
  C            6.386168        0.798296        8.449875
  C            5.824958       -0.013276        7.281074
  C            5.866321        0.789754        5.979931
  C            5.306369       -0.016305        4.806824
  C            5.350385        0.791938        3.508700
  C            4.791699       -0.009808        2.333583
  C            4.800245        0.718681        1.014668
  O            4.398395        0.255062       -0.041607
  O            5.295551        1.966337        1.054370
  H            5.223943        2.279067        0.128173
  C           15.699290       20.005099       14.697654
  C           15.279033       20.017925       13.236644
  C           16.490253       19.988083       12.304696
  C           16.061673       20.001133       10.836584
  C           17.271944       19.971332        9.901533
  C           16.839048       19.984477        8.434657
  C           18.045717       19.954771        7.495099
  C           17.606304       19.968091        6.030081
  C           18.808534       19.938512        5.084974
  C           18.362753       19.951981        3.621616
  C           19.561093       19.922509        2.673492
  C           19.205008       19.933683        1.209462
  O           20.013632       19.914180        0.294098
  O           17.889442       19.967851        0.941750
  H           17.847108       19.970301       -0.037521
  C            0.290641       19.829531       14.047602
  C            0.152922       19.638715       12.545618
  C            1.479211       19.882013       11.825731
  C            1.334820       19.688720       10.315436
  C            2.660758       19.931610        9.592349
  C            2.512022       19.737311        8.082573
  C            3.835333       19.979041        7.354482
  C            3.680028       19.783255        5.845479
  C            5.000096       20.023563        5.111225
  C            4.838407       19.826293        3.602828
  C            6.155301       20.065464        2.864985
  C            6.079476       19.890296        1.370370
  O            7.017901       20.035254        0.601937
  O            4.870240       19.549699        0.895719
  H            5.006739       19.480866       -0.072475
  C            3.776437        3.228437       14.979355
  C            3.734260        3.808829       13.574827
  C            3.117644        2.825438       12.580241
  C            3.077766        3.414398       11.169306
  C            2.461094        2.432288       10.171738
  C            2.423100        3.025036        8.762305
  C            1.807214        2.046827        7.760559
  C            1.772095        2.645286        6.353380
  C            1.157187        1.671882        5.346489
  C            1.124833        2.275949        3.941364
  C            0.511045        1.306507        2.931774
  C            0.442846        1.828586        1.520005
  O           -0.010884        1.211359        0.568532
  O            0.928847        3.068271        1.345257
  H            0.805165        3.238272        0.387879
  C           12.550159        6.936975       18.124101
  C           12.195507        7.424027       19.519929
  C           12.732747        6.480768       20.596084
  C           12.373130        6.975511       21.997907
  C           12.909575        6.033330       23.077020
  C           12.547861        6.531628       24.477077
  C           13.082026        5.592904       25.560205
  C           12.717113        6.096555       26.957601
  C           13.248459        5.162090       28.045674
  C           12.880427        5.670995       29.440625
  C           13.409479        4.740095       30.531200
  C           13.087668        5.173025       31.938082
  O           13.418679        4.569540       32.947230
  O           12.383478        6.312158       32.038299
  H           12.269290        6.435723       33.003939
  C            5.089050       14.652375       18.436768
  C            5.208880       15.735938       19.496421
  C            5.361100       15.137954       20.894891
  C            5.481191       16.232257       21.956626
  C            5.633650       15.636625       23.357319
  C            5.753416       16.734082       24.415876
  C            5.906130       16.143801       25.818711
  C            6.025371       17.246026       26.872477
  C            6.178390       16.662339       28.277949
  C            6.297156       17.769298       29.327166
  C            6.450264       17.190481       30.733351
  C            6.573681       18.219603       31.826961
  O            6.703659       17.964329       33.014431
  O            6.532207       19.497524       31.416171
  H            6.624782       20.015215       32.243332
  C            9.138954        2.679374       18.036161
  C            9.100692        3.373378       19.388280
  C            9.118832        2.364802       20.536722
  C            9.080203        3.068340       21.894198
  C            9.098247        2.061293       23.045500
  C            9.059532        2.768827       24.400931
  C            9.077395        1.766183       25.555958
  C            9.038515        2.479753       26.908306
  C            9.056146        1.482535       28.067919
  C            9.017125        2.202031       29.417408
  C            9.034587        1.209210       30.579229
  C            8.998124        1.840840       31.946716
  O            9.004968        1.224034       33.001062
  O            8.955509        3.183101       31.955058
  H            8.936742        3.413454       32.907609
  C           18.691973        5.170637       18.153384
  C           18.023637        5.936583       19.283864
  C           18.550852        5.494589       20.648840
  C           17.875219        6.268208       21.782082
  C           18.400968        5.827868       23.149434
  C           17.722901        6.603788       24.279687
  C           18.245105        6.167264       25.649523
  C           17.563334        6.946639       26.775268
  C           18.081163        6.514809       28.148160
  C           17.395748        7.297628       29.269642
  C           17.910247        6.869278       30.643554
  C           17.282458        7.595897       31.804680
  O           17.554667        7.401460       32.979516
  O           16.361650        8.515396       31.472740
  H           16.067964        8.878214       32.334645
  C           12.022419       14.850254       18.128440
  C           12.055226       14.012917       19.396952
  C           11.647268       14.833038       20.620654
  C           11.682056       13.985882       21.893571
  C           11.274196       14.804175       23.119953
  C           11.310296       13.953447       24.390487
  C           10.903202       14.767046       25.620134
  C           10.941316       13.910930       26.887081
  C           10.535176       14.718746       28.120750
  C           10.575225       13.857312       29.384336
  C           10.170031       14.660635       30.619778
  C           10.184043       13.881107       31.909138
  O            9.893831       14.337806       33.004285
  O           10.549127       12.593816       31.794492
  H           10.501728       12.251693       32.711811
  C            2.116945        4.986778       18.801408
  C            3.175773        5.544372       19.739120
  C            2.794815        5.332305       21.204170
  C            3.863274        5.895019       22.142759
  C            3.484600        5.684170       23.609767
  C            4.555506        6.248193       24.544827
  C            4.181746        6.039945       26.013376
  C            5.256337        6.605974       26.943110
  C            4.888627        6.400940       28.413555
  C            5.966908        6.968952       29.338212
  C            5.603540        6.766232       30.808823
  C            6.618115        7.300010       31.786589
  O            6.516032        7.237970       33.002267
  O            7.696594        7.877517       31.232586
  H            8.235371        8.159398       32.001372
  C            7.549913       20.000650       17.579652
  C            7.274704       19.991013       19.074810
  C            8.571730       20.000938       19.883573
  C            8.288931       19.991185       21.386614
  C            9.585316       20.001076       22.198558
  C            9.298101       19.991297       23.700792
  C           10.591342       20.001137       24.517574
  C           10.297455       19.991282       26.018598
  C           11.586821       20.001049       26.841338
  C           11.286434       19.991143       28.341334
  C           12.572223       20.000855       29.167457
  C           12.361190       19.991911       30.659332
  O           13.255823       19.997506       31.491044
  O           11.077826       19.976707       31.054678
  H           11.131626       19.972843       32.033380
  C           18.816490       10.942129       18.155267
  C           18.853570       10.350907       19.555415
  C           19.020837       11.436779       20.618137
  C           19.057487       10.836473       22.024370
  C           19.224840       11.921031       23.090058
  C           19.260990       11.316608       24.494573
  C           19.428230       12.397063       25.564316
  C           19.463659       11.786415       26.966241
  C           19.630768       12.861811       28.040975
  C           19.665479       12.245067       29.440526
  C           19.832375       13.316255       30.517805
  C           19.875838       12.788136       31.928304
  O           20.003149       13.477838       32.928427
  O           19.762370       11.454888       32.042868
  H           19.810466       11.295325       33.008785
  C           20.015663       -0.010749       17.344926
  C           20.015685        0.890023       18.569647
  C           20.008179        0.076567       19.863752
  C           20.008232        0.987609       21.092248
  C           20.000714        0.176120       22.388934
  C           20.000806        1.090783       23.614776
  C           19.993303        0.284236       24.914440
  C           19.993420        1.204371       26.136279
  C           19.985926        0.403913       27.439609
  C           19.986090        1.329447       28.657684
  C           19.978609        0.533684       29.962495
  C           19.978307        1.375290       31.212298
  O           19.972859        0.933846       32.351263
  O           19.984626        2.702499       31.007297
  H           19.983418        3.081673       31.911175
  C            2.171174       19.951688       18.133391
  C            2.796786       20.001656       19.518109
  C            1.735320       19.930141       20.615674
  C            2.370173       19.980791       22.006213
  C            1.310092       19.909399       23.106710
  C            1.949029       19.960319       24.495402
  C            0.893154       19.889238       25.599837
  C            1.538257       19.940597       26.985746
  C            0.487565       19.869911       28.095028
  C            1.138716       19.921680       29.478373
  C            0.092299       19.851310       30.590077
  C            0.654989       19.896829       31.987079
  O           -0.011379       19.853231       33.009916
  O            1.992475       19.992530       32.061401
  H            2.175488       20.009299       33.024206
  C            0.059502       15.362569       17.925470
  C            0.716851       15.770300       19.234279
  C            0.030932       15.116385       20.433606
  C            0.696169       15.529978       21.747228
  C            0.011680       14.876975       22.949321
  C            0.679860       15.293097       24.260685
  C           -0.000876       14.642773       25.466246
  C            0.671730       15.062742       26.774209
  C           -0.004388       14.415728       27.984042
  C            0.672593       14.839453       29.288831
  C            0.000088       14.195150       30.500622
  C            0.610207       14.563532       31.828160
  O            0.221174       14.156696       32.912264
  O            1.656037       15.403485       31.762828
  H            1.917808       15.528892       32.699053
  C           -0.018990        0.180605       17.242061
  C           -0.010847        1.033030       18.500885
  C           -0.010780        0.169828       19.762375
  C           -0.002575        1.032368       21.025370
  C           -0.002503        0.171031       22.289516
  C            0.005725        1.037293       23.550000
  C            0.005835        0.180778       24.817313
  C            0.014067        1.052664       26.074010
  C            0.014211        0.202091       27.345223
  C            0.022470        1.079518       28.598369
  C            0.022639        0.233579       29.871245
  C            0.030580        1.025906       31.152831
  O            0.031954        0.540471       32.273766
  O            0.036383        2.360086       30.999600
  H            0.041007        2.703795       31.917539
  C           15.925353       17.400679       18.360083
  C           15.484890       17.806805       19.757361
  C           15.829162       16.731935       20.788188
  C           15.383904       17.145699       22.191664
  C           15.727205       16.071737       23.225451
  C           15.280359       16.489375       24.627308
  C           15.621330       15.418747       25.665189
  C           15.172053       15.842224       27.064602
  C           15.510145       14.775700       28.107520
  C           15.058487       15.204892       29.504703
  C           15.394389       14.141930       30.550220
  C           14.980512       14.490250       31.956523
  O           15.157596       13.778101       32.933062
  O           14.376334       15.681526       32.095734
  H           14.182264       15.737907       33.054862
  C           14.932258       -0.004682       17.655776
  C           15.591721        0.194995       19.010977
  C           14.596729       -0.006675       20.153691
  C           15.265408        0.195369       21.514298
  C           14.271869       -0.005851       22.659879
  C           14.944463        0.197048       24.018462
  C           13.955166       -0.003048       25.167789
  C           14.633667        0.201177       26.523321
  C           13.649595        0.002478       27.677261
  C           14.333900        0.207986       29.029967
  C           13.354080        0.010374       30.186137
  C           13.952665        0.195989       31.556374
  O           13.340026        0.082676       32.607077
  O           15.258778        0.508052       31.571722
  H           15.471742        0.588654       32.525094
  C            0.406079       10.281155       17.984150
  C            0.581161        9.397537       19.208853
  C            0.319162       10.171601       20.500618
  C            0.496680        9.278009       21.729105
  C            0.235080       10.050147       23.023451
  C            0.413616        9.153075       24.249291
  C            0.153135        9.920402       25.546619
  C            0.333240        9.018078       26.768467
  C            0.074147        9.779479       28.069466
  C            0.255770        8.871967       29.287561
  C           -0.002195        9.628812       30.590045
  C            0.156812        8.802180       31.839727
  O           -0.004258        9.217901       32.976994
  O            0.501744        7.520252       31.636671
  H            0.558638        7.144433       32.540160
  C           19.655718       19.989032       17.204336
  C           20.018486       19.265710       18.491402
  C           19.482765       20.002729       19.718708
  C           19.850553       19.270805       21.010303
  C           19.315643       20.006248       22.240328
  C           19.685534       19.271143       23.529552
  C           19.152935       20.002485       24.762913
  C           19.526031       19.262592       26.048564
  C           18.996289       19.988886       27.286032
  C           19.372512       19.244264       28.568341
  C           18.845088       19.966618       29.807637
  C           19.174872       19.294489       31.115228
  O           18.846294       19.709708       32.216033
  O           19.883613       18.158554       31.010874
  H           20.002648       17.867641       31.939296
  C            7.400604       10.695236       17.918925
  C            7.861536       11.018143       19.331229
  C            6.741619       10.803604       20.349184
  C            7.210794       11.129866       21.767855
  C            6.091907       10.916041       22.788803
  C            6.565162       11.243344       24.205913
  C            5.449901       11.031167       25.231036
  C            5.929307       11.360074       26.645790
  C            4.818513       11.149937       27.676051
  C            5.303941       11.480411       29.088661
  C            4.196987       11.271802       30.121598
  C            4.596707       11.576882       31.541970
  O            3.860923       11.474491       32.511651
  O            5.865010       11.988115       31.702737
  H            5.945181       12.136515       32.668304
  C            4.404443       -0.004433       18.045623
  C            4.413380        0.851132       19.302309
  C            4.425629       -0.008934       20.565880
  C            4.434583        0.856757       21.826713
  C            4.446837       -0.001437       23.092934
  C            4.455777        0.867970       24.351246
  C            4.468053        0.014605       25.620624
  C            4.476940        0.889626       26.875136
  C            4.489232        0.042214       28.148399
  C            4.498090        0.922767       29.399346
  C            4.510384        0.079992       30.674260
  C            4.519635        0.875516       31.953855
  O            4.529966        0.392870       33.075946
  O            4.515810        2.209323       31.797348
  H            4.522855        2.555320       32.714411
