15

C          3.05096        1.20964       -0.90071
C          2.51599        0.03302       -0.10027
C          0.98763        0.01294       -0.08662
C          0.45510       -1.17250        0.71982
C         -1.07435       -1.19510        0.73520
C         -1.60268       -2.38186        1.54252
C         -3.13193       -2.40923        1.56114
C         -3.65392       -3.59797        2.36982
C         -5.18292       -3.63121        2.39244
C         -5.69881       -4.82200        3.20250
C         -7.22649       -4.85916        3.22779
C         -7.81476       -6.00610        4.00803
O         -9.01014       -6.21397        4.14945
O         -6.91886       -6.83330        4.57075
H         -7.46951       -7.50376        5.02686
